
     RDKit          3D

  4  3  0  0  0  0  0  0  0  0999 V2000
    0.0299    0.2768    0.8058 C   0  0  0  0  0  0  0  0  0  0  0  0
   -0.0480   -0.2721   -0.2832 C   0  0  0  0  0  0  0  0  0  0  0  0
    0.1157    0.7503    1.7495 H   0  0  0  0  0  0  0  0  0  0  0  0
   -0.0976   -0.7549   -1.2387 H   0  0  0  0  0  0  0  0  0  0  0  0
  1  2  3  0
  1  3  1  0
  2  4  1  0
M  END

$$$$
