
     RDKit          3D

 10  9  0  0  0  0  0  0  0  0999 V2000
   -1.2859   -0.2374    0.1060 C   0  0  0  0  0  0  0  0  0  0  0  0
   -0.0173    0.5735    0.1092 C   0  0  0  0  0  0  0  0  0  0  0  0
    1.3089   -0.0626   -0.1256 C   0  0  0  0  0  0  0  0  0  0  0  0
   -0.0672    1.7857    0.3087 O   0  0  0  0  0  0  0  0  0  0  0  0
   -2.0333    0.3639   -0.4581 H   0  0  0  0  0  0  0  0  0  0  0  0
   -1.6658   -0.4139    1.1116 H   0  0  0  0  0  0  0  0  0  0  0  0
   -1.1268   -1.1910   -0.4220 H   0  0  0  0  0  0  0  0  0  0  0  0
    1.1647   -0.9722   -0.7782 H   0  0  0  0  0  0  0  0  0  0  0  0
    1.9999    0.5995   -0.6785 H   0  0  0  0  0  0  0  0  0  0  0  0
    1.7227   -0.4454    0.8270 H   0  0  0  0  0  0  0  0  0  0  0  0
  1  2  1  0
  2  3  1  0
  2  4  2  0
  1  5  1  0
  1  6  1  0
  1  7  1  0
  3  8  1  0
  3  9  1  0
  3 10  1  0
M  END

$$$$
