
     RDKit          3D

 34 34  0  0  0  0  0  0  0  0999 V2000
    4.5764    0.8316   -0.0196 C   0  0  0  0  0  0  0  0  0  0  0  0
    3.5116   -0.1665    0.0915 C   0  0  0  0  0  0  0  0  0  0  0  0
    3.8650   -1.3870    0.1978 O   0  0  0  0  0  0  0  0  0  0  0  0
    2.0822    0.1959    0.0834 C   0  0  0  0  0  0  0  0  0  0  0  0
    1.1475   -0.7319    0.1857 C   0  0  0  0  0  0  0  0  0  0  0  0
   -0.2860   -0.4516    0.1856 C   0  0  0  0  0  0  0  0  0  0  0  0
   -1.0725   -1.5397    0.2983 C   0  0  0  0  0  0  0  0  0  0  0  0
   -0.4484   -2.8807    0.4091 C   0  0  0  0  0  0  0  0  0  0  0  0
   -2.5516   -1.4673    0.3161 C   0  0  0  0  0  0  0  0  0  0  0  0
   -3.0066   -0.2247   -0.3697 C   0  0  0  0  0  0  0  0  0  0  0  0
   -2.3451    0.9332    0.3115 C   0  0  0  0  0  0  0  0  0  0  0  0
   -0.8243    0.9174    0.0723 C   0  0  0  0  0  0  0  0  0  0  0  0
   -0.2706    1.8807    1.0871 C   0  0  0  0  0  0  0  0  0  0  0  0
   -0.7046    1.3995   -1.3579 C   0  0  0  0  0  0  0  0  0  0  0  0
    4.2692    1.8438    0.3341 H   0  0  0  0  0  0  0  0  0  0  0  0
    5.4780    0.5263    0.5563 H   0  0  0  0  0  0  0  0  0  0  0  0
    4.9324    0.9044   -1.0817 H   0  0  0  0  0  0  0  0  0  0  0  0
    1.8466    1.2165   -0.0085 H   0  0  0  0  0  0  0  0  0  0  0  0
    1.5433   -1.7589    0.2736 H   0  0  0  0  0  0  0  0  0  0  0  0
   -1.2519   -3.6363    0.4020 H   0  0  0  0  0  0  0  0  0  0  0  0
    0.1762   -2.9794    1.3195 H   0  0  0  0  0  0  0  0  0  0  0  0
    0.2098   -3.1166   -0.4510 H   0  0  0  0  0  0  0  0  0  0  0  0
   -2.9344   -1.4126    1.3769 H   0  0  0  0  0  0  0  0  0  0  0  0
   -2.9709   -2.3956   -0.1172 H   0  0  0  0  0  0  0  0  0  0  0  0
   -4.1012   -0.1203   -0.1346 H   0  0  0  0  0  0  0  0  0  0  0  0
   -2.8507   -0.2402   -1.4453 H   0  0  0  0  0  0  0  0  0  0  0  0
   -2.7244    1.8648   -0.1491 H   0  0  0  0  0  0  0  0  0  0  0  0
   -2.5822    0.9737    1.3704 H   0  0  0  0  0  0  0  0  0  0  0  0
    0.1752    2.7619    0.5921 H   0  0  0  0  0  0  0  0  0  0  0  0
    0.3904    1.3846    1.8327 H   0  0  0  0  0  0  0  0  0  0  0  0
   -1.0796    2.3373    1.7424 H   0  0  0  0  0  0  0  0  0  0  0  0
   -1.0757    0.5846   -2.0117 H   0  0  0  0  0  0  0  0  0  0  0  0
    0.2831    1.6804   -1.6908 H   0  0  0  0  0  0  0  0  0  0  0  0
   -1.4062    2.2724   -1.4529 H   0  0  0  0  0  0  0  0  0  0  0  0
  1  2  1  0
  2  3  2  0
  2  4  1  0
  4  5  2  0
  5  6  1  0
  6  7  2  0
  7  8  1  0
  7  9  1  0
  9 10  1  0
 10 11  1  0
 11 12  1  0
 12 13  1  0
 12 14  1  0
 12  6  1  0
  1 15  1  0
  1 16  1  0
  1 17  1  0
  4 18  1  0
  5 19  1  0
  8 20  1  0
  8 21  1  0
  8 22  1  0
  9 23  1  0
  9 24  1  0
 10 25  1  0
 10 26  1  0
 11 27  1  0
 11 28  1  0
 13 29  1  0
 13 30  1  0
 13 31  1  0
 14 32  1  0
 14 33  1  0
 14 34  1  0
M  END

$$$$
