
     RDKit          3D

 37 37  0  0  0  0  0  0  0  0999 V2000
    5.2235   -0.9376    1.0912 O   0  0  0  0  0  0  0  0  0  0  0  0
    4.2710   -1.1222    0.2759 C   0  0  0  0  0  0  0  0  0  0  0  0
    3.1199   -0.1933    0.2763 C   0  0  0  0  0  0  0  0  0  0  0  0
    3.0862    0.9391    1.2232 C   0  0  0  0  0  0  0  0  0  0  0  0
    2.1288   -0.4042   -0.5873 C   0  0  0  0  0  0  0  0  0  0  0  0
    1.0004    0.5087   -0.5851 C   0  0  0  0  0  0  0  0  0  0  0  0
   -0.3353   -0.0186   -0.3099 C   0  0  0  0  0  0  0  0  0  0  0  0
   -0.6427   -1.2824   -0.0428 C   0  0  0  0  0  0  0  0  0  0  0  0
    0.3097   -2.3964    0.0271 C   0  0  0  0  0  0  0  0  0  0  0  0
   -2.1136   -1.5575    0.2010 C   0  0  0  0  0  0  0  0  0  0  0  0
   -2.5617   -0.6276    1.2782 C   0  0  0  0  0  0  0  0  0  0  0  0
   -2.3760    0.7975    0.8764 C   0  0  0  0  0  0  0  0  0  0  0  0
   -1.4716    0.9496   -0.3292 C   0  0  0  0  0  0  0  0  0  0  0  0
   -0.9097    2.3758   -0.2092 C   0  0  0  0  0  0  0  0  0  0  0  0
   -2.3092    0.9336   -1.5489 C   0  0  0  0  0  0  0  0  0  0  0  0
    4.2941   -1.9502   -0.4166 H   0  0  0  0  0  0  0  0  0  0  0  0
    3.8837    0.7704    1.9746 H   0  0  0  0  0  0  0  0  0  0  0  0
    3.1986    1.9002    0.6696 H   0  0  0  0  0  0  0  0  0  0  0  0
    2.1040    0.9068    1.7650 H   0  0  0  0  0  0  0  0  0  0  0  0
    2.1892   -1.2387   -1.2704 H   0  0  0  0  0  0  0  0  0  0  0  0
    0.9682    0.8896   -1.6581 H   0  0  0  0  0  0  0  0  0  0  0  0
    1.2234    1.4435   -0.0110 H   0  0  0  0  0  0  0  0  0  0  0  0
    0.5154   -2.8733   -0.9781 H   0  0  0  0  0  0  0  0  0  0  0  0
   -0.2505   -3.2334    0.5503 H   0  0  0  0  0  0  0  0  0  0  0  0
    1.1918   -2.2651    0.6496 H   0  0  0  0  0  0  0  0  0  0  0  0
   -2.2365   -2.6071    0.5364 H   0  0  0  0  0  0  0  0  0  0  0  0
   -2.6735   -1.4855   -0.7497 H   0  0  0  0  0  0  0  0  0  0  0  0
   -3.6231   -0.8163    1.4636 H   0  0  0  0  0  0  0  0  0  0  0  0
   -2.0014   -0.9040    2.1975 H   0  0  0  0  0  0  0  0  0  0  0  0
   -3.3500    1.2825    0.7321 H   0  0  0  0  0  0  0  0  0  0  0  0
   -1.8485    1.2956    1.7412 H   0  0  0  0  0  0  0  0  0  0  0  0
   -0.2228    2.5867   -1.0554 H   0  0  0  0  0  0  0  0  0  0  0  0
   -1.7228    3.1039   -0.2723 H   0  0  0  0  0  0  0  0  0  0  0  0
   -0.3714    2.4532    0.7551 H   0  0  0  0  0  0  0  0  0  0  0  0
   -2.3159    1.8861   -2.1162 H   0  0  0  0  0  0  0  0  0  0  0  0
   -3.3862    0.7141   -1.3704 H   0  0  0  0  0  0  0  0  0  0  0  0
   -1.9856    0.1766   -2.3192 H   0  0  0  0  0  0  0  0  0  0  0  0
  1  2  2  0
  2  3  1  0
  3  4  1  0
  3  5  2  3
  5  6  1  0
  6  7  1  0
  7  8  2  0
  8  9  1  0
  8 10  1  0
 10 11  1  0
 11 12  1  0
 12 13  1  0
 13 14  1  0
 13 15  1  0
 13  7  1  0
  2 16  1  0
  4 17  1  0
  4 18  1  0
  4 19  1  0
  5 20  1  0
  6 21  1  0
  6 22  1  0
  9 23  1  0
  9 24  1  0
  9 25  1  0
 10 26  1  0
 10 27  1  0
 11 28  1  0
 11 29  1  0
 12 30  1  0
 12 31  1  0
 14 32  1  0
 14 33  1  0
 14 34  1  0
 15 35  1  0
 15 36  1  0
 15 37  1  0
M  END

$$$$
