
     RDKit          3D

 52 52  0  0  0  0  0  0  0  0999 V2000
    8.1871    0.9166    0.0345 O   0  0  0  0  0  0  0  0  0  0  0  0
    7.2865    0.4119    0.9781 C   0  0  0  0  0  0  0  0  0  0  0  0
    5.8999    0.3938    0.4425 C   0  0  0  0  0  0  0  0  0  0  0  0
    5.2014   -0.7214    0.3294 C   0  0  0  0  0  0  0  0  0  0  0  0
    5.8418   -1.9917    0.7577 C   0  0  0  0  0  0  0  0  0  0  0  0
    3.8748   -0.6461   -0.1962 C   0  0  0  0  0  0  0  0  0  0  0  0
    2.7659   -0.5671   -0.6500 C   0  0  0  0  0  0  0  0  0  0  0  0
    1.4109   -0.4469   -1.2099 C   0  0  0  0  0  0  0  0  0  0  0  0
    0.7467   -1.6457   -1.1259 O   0  0  0  0  0  0  0  0  0  0  0  0
    0.6721    0.6779   -0.6065 C   0  0  0  0  0  0  0  0  0  0  0  0
    1.3539    2.0361   -0.8132 C   0  0  0  0  0  0  0  0  0  0  0  0
   -0.4389    0.6860    0.0526 C   0  0  0  0  0  0  0  0  0  0  0  0
   -1.3368   -0.4282    0.4185 C   0  0  0  0  0  0  0  0  0  0  0  0
   -2.7397   -0.2460   -0.1240 C   0  0  0  0  0  0  0  0  0  0  0  0
   -3.1794   -1.1324   -1.0323 C   0  0  0  0  0  0  0  0  0  0  0  0
   -2.3775   -2.2653   -1.5251 C   0  0  0  0  0  0  0  0  0  0  0  0
   -4.5696   -0.9969   -1.6240 C   0  0  0  0  0  0  0  0  0  0  0  0
   -5.4447   -0.6460   -0.4376 C   0  0  0  0  0  0  0  0  0  0  0  0
   -5.0676    0.6595    0.1616 C   0  0  0  0  0  0  0  0  0  0  0  0
   -3.5912    0.8725    0.3770 C   0  0  0  0  0  0  0  0  0  0  0  0
   -3.2286    2.2129   -0.2072 C   0  0  0  0  0  0  0  0  0  0  0  0
   -3.3347    0.9590    1.8901 C   0  0  0  0  0  0  0  0  0  0  0  0
    7.9205    1.8516   -0.2060 H   0  0  0  0  0  0  0  0  0  0  0  0
    7.3616    0.9847    1.9308 H   0  0  0  0  0  0  0  0  0  0  0  0
    7.5946   -0.6317    1.1933 H   0  0  0  0  0  0  0  0  0  0  0  0
    5.4909    1.3614    0.1468 H   0  0  0  0  0  0  0  0  0  0  0  0
    6.1101   -1.8911    1.8288 H   0  0  0  0  0  0  0  0  0  0  0  0
    6.7273   -2.1686    0.1143 H   0  0  0  0  0  0  0  0  0  0  0  0
    5.1084   -2.8227    0.7058 H   0  0  0  0  0  0  0  0  0  0  0  0
    1.5373   -0.2403   -2.3119 H   0  0  0  0  0  0  0  0  0  0  0  0
    1.2238   -2.2073   -0.4403 H   0  0  0  0  0  0  0  0  0  0  0  0
    2.2586    2.0592   -0.1763 H   0  0  0  0  0  0  0  0  0  0  0  0
    1.6537    2.0579   -1.8859 H   0  0  0  0  0  0  0  0  0  0  0  0
    0.6647    2.8356   -0.5415 H   0  0  0  0  0  0  0  0  0  0  0  0
   -0.7847    1.6840    0.4162 H   0  0  0  0  0  0  0  0  0  0  0  0
   -1.4101   -0.3340    1.5625 H   0  0  0  0  0  0  0  0  0  0  0  0
   -0.9469   -1.4292    0.2842 H   0  0  0  0  0  0  0  0  0  0  0  0
   -3.0836   -2.9939   -2.0174 H   0  0  0  0  0  0  0  0  0  0  0  0
   -1.6790   -1.9850   -2.3372 H   0  0  0  0  0  0  0  0  0  0  0  0
   -1.8428   -2.8497   -0.7856 H   0  0  0  0  0  0  0  0  0  0  0  0
   -4.5324   -0.2011   -2.3867 H   0  0  0  0  0  0  0  0  0  0  0  0
   -4.9177   -1.9408   -2.0344 H   0  0  0  0  0  0  0  0  0  0  0  0
   -5.4140   -1.5085    0.2490 H   0  0  0  0  0  0  0  0  0  0  0  0
   -6.4744   -0.5621   -0.8291 H   0  0  0  0  0  0  0  0  0  0  0  0
   -5.5056    1.4627   -0.5029 H   0  0  0  0  0  0  0  0  0  0  0  0
   -5.5796    0.7443    1.1383 H   0  0  0  0  0  0  0  0  0  0  0  0
   -2.5551    2.1226   -1.0856 H   0  0  0  0  0  0  0  0  0  0  0  0
   -2.8161    2.8782    0.5748 H   0  0  0  0  0  0  0  0  0  0  0  0
   -4.1674    2.6780   -0.6428 H   0  0  0  0  0  0  0  0  0  0  0  0
   -4.2175    1.4883    2.3690 H   0  0  0  0  0  0  0  0  0  0  0  0
   -2.4061    1.5158    2.0821 H   0  0  0  0  0  0  0  0  0  0  0  0
   -3.2511   -0.0508    2.3348 H   0  0  0  0  0  0  0  0  0  0  0  0
  1  2  1  0
  2  3  1  0
  3  4  2  3
  4  5  1  0
  4  6  1  0
  6  7  3  0
  7  8  1  0
  8  9  1  0
  8 10  1  0
 10 11  1  0
 10 12  2  3
 12 13  1  0
 13 14  1  0
 14 15  2  0
 15 16  1  0
 15 17  1  0
 17 18  1  0
 18 19  1  0
 19 20  1  0
 20 21  1  0
 20 22  1  0
 20 14  1  0
  1 23  1  0
  2 24  1  0
  2 25  1  0
  3 26  1  0
  5 27  1  0
  5 28  1  0
  5 29  1  0
  8 30  1  0
  9 31  1  0
 11 32  1  0
 11 33  1  0
 11 34  1  0
 12 35  1  0
 13 36  1  0
 13 37  1  0
 16 38  1  0
 16 39  1  0
 16 40  1  0
 17 41  1  0
 17 42  1  0
 18 43  1  0
 18 44  1  0
 19 45  1  0
 19 46  1  0
 21 47  1  0
 21 48  1  0
 21 49  1  0
 22 50  1  0
 22 51  1  0
 22 52  1  0
M  END

$$$$
