
     RDKit          3D

 15 14  0  0  0  0  0  0  0  0999 V2000
   -1.8773   -0.9923    0.2844 O   0  0  0  0  0  0  0  0  0  0  0  0
   -1.8176    0.3721    0.3578 C   0  0  0  0  0  0  0  0  0  0  0  0
   -0.4474    0.8742    0.1783 C   0  0  0  0  0  0  0  0  0  0  0  0
    0.6178    0.1286   -0.0299 C   0  0  0  0  0  0  0  0  0  0  0  0
    1.8958    0.8112   -0.1844 C   0  0  0  0  0  0  0  0  0  0  0  0
    2.9627    1.3752   -0.3107 C   0  0  0  0  0  0  0  0  0  0  0  0
    0.5183   -1.3508   -0.1040 C   0  0  0  0  0  0  0  0  0  0  0  0
   -2.4234   -1.3209   -0.4745 H   0  0  0  0  0  0  0  0  0  0  0  0
   -2.2487    0.7578    1.3288 H   0  0  0  0  0  0  0  0  0  0  0  0
   -2.4353    0.7762   -0.4873 H   0  0  0  0  0  0  0  0  0  0  0  0
   -0.3199    1.9661    0.2247 H   0  0  0  0  0  0  0  0  0  0  0  0
    3.8998    1.8540   -0.4278 H   0  0  0  0  0  0  0  0  0  0  0  0
    1.5662   -1.7395   -0.2619 H   0  0  0  0  0  0  0  0  0  0  0  0
    0.1952   -1.7929    0.8599 H   0  0  0  0  0  0  0  0  0  0  0  0
   -0.0863   -1.7188   -0.9534 H   0  0  0  0  0  0  0  0  0  0  0  0
  1  2  1  0
  2  3  1  0
  3  4  2  0
  4  5  1  0
  5  6  3  0
  4  7  1  0
  1  8  1  0
  2  9  1  0
  2 10  1  0
  3 11  1  0
  6 12  1  0
  7 13  1  0
  7 14  1  0
  7 15  1  0
M  END

$$$$
