
     RDKit          3D

 15 14  0  0  0  0  0  0  0  0999 V2000
    1.6229   -1.3148   -0.4755 C   0  0  0  0  0  0  0  0  0  0  0  0
    0.4619   -1.1719    0.1592 C   0  0  0  0  0  0  0  0  0  0  0  0
   -0.3895    0.0054   -0.1733 C   0  0  0  0  0  0  0  0  0  0  0  0
   -1.6059   -0.0146    0.7240 C   0  0  0  0  0  0  0  0  0  0  0  0
   -0.6920   -0.0387   -1.5227 O   0  0  0  0  0  0  0  0  0  0  0  0
    0.3837    1.2305    0.0904 C   0  0  0  0  0  0  0  0  0  0  0  0
    1.0368    2.2390    0.3251 C   0  0  0  0  0  0  0  0  0  0  0  0
    1.9610   -0.6027   -1.2212 H   0  0  0  0  0  0  0  0  0  0  0  0
    2.2861   -2.1487   -0.2785 H   0  0  0  0  0  0  0  0  0  0  0  0
    0.1881   -1.9228    0.8927 H   0  0  0  0  0  0  0  0  0  0  0  0
   -1.2862   -0.3163    1.7240 H   0  0  0  0  0  0  0  0  0  0  0  0
   -2.3180   -0.7832    0.3621 H   0  0  0  0  0  0  0  0  0  0  0  0
   -2.1004    0.9732    0.7011 H   0  0  0  0  0  0  0  0  0  0  0  0
   -1.1585    0.7619   -1.8483 H   0  0  0  0  0  0  0  0  0  0  0  0
    1.6100    3.1036    0.5407 H   0  0  0  0  0  0  0  0  0  0  0  0
  1  2  2  0
  2  3  1  0
  3  4  1  0
  3  5  1  0
  3  6  1  0
  6  7  3  0
  1  8  1  0
  1  9  1  0
  2 10  1  0
  4 11  1  0
  4 12  1  0
  4 13  1  0
  5 14  1  0
  7 15  1  0
M  END

$$$$
