
     RDKit          3D

 15 14  0  0  0  0  0  0  0  0999 V2000
   -2.6292   -0.4676    0.5506 O   0  0  0  0  0  0  0  0  0  0  0  0
   -1.7321    0.2697   -0.2398 C   0  0  0  0  0  0  0  0  0  0  0  0
   -0.4931   -0.5502   -0.4581 C   0  0  0  0  0  0  0  0  0  0  0  0
    0.7034   -0.1263   -0.0576 C   0  0  0  0  0  0  0  0  0  0  0  0
    0.8313    1.1552    0.6068 C   0  0  0  0  0  0  0  0  0  0  0  0
    0.9357    2.2318    1.1421 C   0  0  0  0  0  0  0  0  0  0  0  0
    1.8756   -1.0018   -0.3144 C   0  0  0  0  0  0  0  0  0  0  0  0
   -2.7737   -1.3204    0.0446 H   0  0  0  0  0  0  0  0  0  0  0  0
   -1.4969    1.1686    0.3772 H   0  0  0  0  0  0  0  0  0  0  0  0
   -2.2004    0.5932   -1.1710 H   0  0  0  0  0  0  0  0  0  0  0  0
   -0.6362   -1.5047   -0.9605 H   0  0  0  0  0  0  0  0  0  0  0  0
    1.0295    3.1717    1.6289 H   0  0  0  0  0  0  0  0  0  0  0  0
    2.7449   -0.6537    0.3115 H   0  0  0  0  0  0  0  0  0  0  0  0
    2.1192   -0.9125   -1.3946 H   0  0  0  0  0  0  0  0  0  0  0  0
    1.7221   -2.0532   -0.0656 H   0  0  0  0  0  0  0  0  0  0  0  0
  1  2  1  0
  2  3  1  0
  3  4  2  0
  4  5  1  0
  5  6  3  0
  4  7  1  0
  1  8  1  0
  2  9  1  0
  2 10  1  0
  3 11  1  0
  6 12  1  0
  7 13  1  0
  7 14  1  0
  7 15  1  0
M  END

$$$$
