
     RDKit          3D

 27 26  0  0  0  0  0  0  0  0999 V2000
    4.8033    1.4141    1.6146 O   0  0  0  0  0  0  0  0  0  0  0  0
    3.6584    1.2909    1.0431 C   0  0  0  0  0  0  0  0  0  0  0  0
    3.1369   -0.0062    0.6497 C   0  0  0  0  0  0  0  0  0  0  0  0
    1.9648   -0.1984    0.0569 C   0  0  0  0  0  0  0  0  0  0  0  0
    1.6360   -1.6343   -0.2569 C   0  0  0  0  0  0  0  0  0  0  0  0
    1.0361    0.8829   -0.3123 C   0  0  0  0  0  0  0  0  0  0  0  0
   -0.2838    0.8026    0.3570 C   0  0  0  0  0  0  0  0  0  0  0  0
   -1.1049   -0.3829    0.1248 C   0  0  0  0  0  0  0  0  0  0  0  0
   -2.3124   -0.2614   -0.4741 C   0  0  0  0  0  0  0  0  0  0  0  0
   -3.1866   -1.4373   -0.7332 C   0  0  0  0  0  0  0  0  0  0  0  0
   -2.7796    1.1062   -0.8885 C   0  0  0  0  0  0  0  0  0  0  0  0
    3.1474    2.2320    0.8949 H   0  0  0  0  0  0  0  0  0  0  0  0
    3.7913   -0.8618    0.8775 H   0  0  0  0  0  0  0  0  0  0  0  0
    0.9412   -1.6787   -1.1036 H   0  0  0  0  0  0  0  0  0  0  0  0
    1.3518   -2.2065    0.6232 H   0  0  0  0  0  0  0  0  0  0  0  0
    2.5910   -2.1187   -0.6417 H   0  0  0  0  0  0  0  0  0  0  0  0
    0.9638    0.8847   -1.4308 H   0  0  0  0  0  0  0  0  0  0  0  0
    1.4595    1.8895   -0.0779 H   0  0  0  0  0  0  0  0  0  0  0  0
   -0.0764    0.9413    1.4678 H   0  0  0  0  0  0  0  0  0  0  0  0
   -0.9133    1.7144    0.1313 H   0  0  0  0  0  0  0  0  0  0  0  0
   -0.8472   -1.3986    0.4022 H   0  0  0  0  0  0  0  0  0  0  0  0
   -2.5538   -2.3448   -0.6611 H   0  0  0  0  0  0  0  0  0  0  0  0
   -3.6091   -1.4501   -1.7675 H   0  0  0  0  0  0  0  0  0  0  0  0
   -4.0648   -1.4587   -0.0337 H   0  0  0  0  0  0  0  0  0  0  0  0
   -2.9906    1.6607    0.0385 H   0  0  0  0  0  0  0  0  0  0  0  0
   -2.0554    1.6188   -1.5543 H   0  0  0  0  0  0  0  0  0  0  0  0
   -3.7039    1.0004   -1.4916 H   0  0  0  0  0  0  0  0  0  0  0  0
  1  2  2  0
  2  3  1  0
  3  4  2  3
  4  5  1  0
  4  6  1  0
  6  7  1  0
  7  8  1  0
  8  9  2  3
  9 10  1  0
  9 11  1  0
  2 12  1  0
  3 13  1  0
  5 14  1  0
  5 15  1  0
  5 16  1  0
  6 17  1  0
  6 18  1  0
  7 19  1  0
  7 20  1  0
  8 21  1  0
 10 22  1  0
 10 23  1  0
 10 24  1  0
 11 25  1  0
 11 26  1  0
 11 27  1  0
M  END

$$$$
