
     RDKit          3D

 27 26  0  0  0  0  0  0  0  0999 V2000
   -2.7029   -2.5121    0.9936 C   0  0  0  0  0  0  0  0  0  0  0  0
   -2.4848   -1.4290    0.4738 C   0  0  0  0  0  0  0  0  0  0  0  0
   -2.2096   -0.1242   -0.1302 C   0  0  0  0  0  0  0  0  0  0  0  0
   -3.3584    0.8162    0.0577 C   0  0  0  0  0  0  0  0  0  0  0  0
   -2.0312   -0.2978   -1.5089 O   0  0  0  0  0  0  0  0  0  0  0  0
   -0.9060    0.4342    0.4121 C   0  0  0  0  0  0  0  0  0  0  0  0
    0.1877   -0.5760    0.0428 C   0  0  0  0  0  0  0  0  0  0  0  0
    1.4605   -0.0485    0.5625 C   0  0  0  0  0  0  0  0  0  0  0  0
    2.5199    0.2398   -0.1887 C   0  0  0  0  0  0  0  0  0  0  0  0
    3.7909    0.7728    0.3797 C   0  0  0  0  0  0  0  0  0  0  0  0
    2.4153    0.0129   -1.6726 C   0  0  0  0  0  0  0  0  0  0  0  0
   -2.9065   -3.4629    1.4428 H   0  0  0  0  0  0  0  0  0  0  0  0
   -3.7244    0.8518    1.1072 H   0  0  0  0  0  0  0  0  0  0  0  0
   -4.1763    0.5431   -0.6441 H   0  0  0  0  0  0  0  0  0  0  0  0
   -3.0069    1.8245   -0.2391 H   0  0  0  0  0  0  0  0  0  0  0  0
   -2.4352    0.4551   -2.0004 H   0  0  0  0  0  0  0  0  0  0  0  0
   -0.6142    1.3619   -0.1197 H   0  0  0  0  0  0  0  0  0  0  0  0
   -0.8934    0.5663    1.4992 H   0  0  0  0  0  0  0  0  0  0  0  0
   -0.0943   -1.5338    0.5223 H   0  0  0  0  0  0  0  0  0  0  0  0
    0.1911   -0.6463   -1.0613 H   0  0  0  0  0  0  0  0  0  0  0  0
    1.5461    0.1182    1.6286 H   0  0  0  0  0  0  0  0  0  0  0  0
    3.7939    1.8730    0.1352 H   0  0  0  0  0  0  0  0  0  0  0  0
    4.6422    0.2673   -0.1219 H   0  0  0  0  0  0  0  0  0  0  0  0
    3.8042    0.6418    1.4736 H   0  0  0  0  0  0  0  0  0  0  0  0
    3.4040    0.1032   -2.1572 H   0  0  0  0  0  0  0  0  0  0  0  0
    2.0310   -1.0070   -1.8649 H   0  0  0  0  0  0  0  0  0  0  0  0
    1.7574    0.7555   -2.1679 H   0  0  0  0  0  0  0  0  0  0  0  0
  1  2  3  0
  2  3  1  0
  3  4  1  0
  3  5  1  0
  3  6  1  0
  6  7  1  0
  7  8  1  0
  8  9  2  3
  9 10  1  0
  9 11  1  0
  1 12  1  0
  4 13  1  0
  4 14  1  0
  4 15  1  0
  5 16  1  0
  6 17  1  0
  6 18  1  0
  7 19  1  0
  7 20  1  0
  8 21  1  0
 10 22  1  0
 10 23  1  0
 10 24  1  0
 11 25  1  0
 11 26  1  0
 11 27  1  0
M  END

$$$$
