
     RDKit          3D

 59 59  0  0  0  0  0  0  0  0999 V2000
    6.1248   -0.3359    2.0050 C   0  0  0  0  0  0  0  0  0  0  0  0
    6.0379    0.0543    0.5680 C   0  0  0  0  0  0  0  0  0  0  0  0
    6.0427   -0.7952   -0.3650 O   0  0  0  0  0  0  0  0  0  0  0  0
    5.9473    1.4325    0.2564 O   0  0  0  0  0  0  0  0  0  0  0  0
    5.8684    1.7544   -1.0862 C   0  0  0  0  0  0  0  0  0  0  0  0
    4.6814    1.4218   -1.8550 C   0  0  0  0  0  0  0  0  0  0  0  0
    3.5527    0.8657   -1.5991 C   0  0  0  0  0  0  0  0  0  0  0  0
    2.5836    0.7111   -2.7617 C   0  0  0  0  0  0  0  0  0  0  0  0
    3.0032    0.4320   -0.3261 C   0  0  0  0  0  0  0  0  0  0  0  0
    1.7833   -0.1569   -0.2760 C   0  0  0  0  0  0  0  0  0  0  0  0
    1.2057   -0.6089    1.0336 C   0  0  0  0  0  0  0  0  0  0  0  0
    0.8984   -1.9294    1.0227 O   0  0  0  0  0  0  0  0  0  0  0  0
    0.1605    0.3447    1.4541 C   0  0  0  0  0  0  0  0  0  0  0  0
    0.6770    1.7603    1.7125 C   0  0  0  0  0  0  0  0  0  0  0  0
   -1.1203    0.1461    1.6170 C   0  0  0  0  0  0  0  0  0  0  0  0
   -1.9115   -1.0775    1.4317 C   0  0  0  0  0  0  0  0  0  0  0  0
   -3.0173   -0.8866    0.4099 C   0  0  0  0  0  0  0  0  0  0  0  0
   -3.0111   -1.6429   -0.6808 C   0  0  0  0  0  0  0  0  0  0  0  0
   -1.9219   -2.6662   -0.8874 C   0  0  0  0  0  0  0  0  0  0  0  0
   -4.0340   -1.5569   -1.7566 C   0  0  0  0  0  0  0  0  0  0  0  0
   -4.7808   -0.2569   -1.6074 C   0  0  0  0  0  0  0  0  0  0  0  0
   -5.2897   -0.2309   -0.1718 C   0  0  0  0  0  0  0  0  0  0  0  0
   -4.0760    0.1428    0.6746 C   0  0  0  0  0  0  0  0  0  0  0  0
   -3.6605    1.5316    0.2813 C   0  0  0  0  0  0  0  0  0  0  0  0
   -4.5079    0.1655    2.1184 C   0  0  0  0  0  0  0  0  0  0  0  0
    6.8143    0.3237    2.5528 H   0  0  0  0  0  0  0  0  0  0  0  0
    5.1216   -0.1963    2.4544 H   0  0  0  0  0  0  0  0  0  0  0  0
    6.4210   -1.3810    2.1067 H   0  0  0  0  0  0  0  0  0  0  0  0
    6.7525    1.3267   -1.6674 H   0  0  0  0  0  0  0  0  0  0  0  0
    6.0031    2.8884   -1.1866 H   0  0  0  0  0  0  0  0  0  0  0  0
    4.7922    1.7394   -2.9489 H   0  0  0  0  0  0  0  0  0  0  0  0
    2.4821   -0.3566   -2.9944 H   0  0  0  0  0  0  0  0  0  0  0  0
    3.0051    1.2297   -3.6315 H   0  0  0  0  0  0  0  0  0  0  0  0
    1.6667    1.2149   -2.4386 H   0  0  0  0  0  0  0  0  0  0  0  0
    3.4579    0.5538    0.6363 H   0  0  0  0  0  0  0  0  0  0  0  0
    1.2022   -0.3137   -1.1732 H   0  0  0  0  0  0  0  0  0  0  0  0
    2.0380   -0.5042    1.8167 H   0  0  0  0  0  0  0  0  0  0  0  0
    1.2576   -2.4243    0.2390 H   0  0  0  0  0  0  0  0  0  0  0  0
    0.8622    1.9137    2.7784 H   0  0  0  0  0  0  0  0  0  0  0  0
    1.5129    1.9521    1.0426 H   0  0  0  0  0  0  0  0  0  0  0  0
   -0.1497    2.4289    1.3965 H   0  0  0  0  0  0  0  0  0  0  0  0
   -1.7064    1.0260    1.9466 H   0  0  0  0  0  0  0  0  0  0  0  0
   -2.3939   -1.4121    2.3934 H   0  0  0  0  0  0  0  0  0  0  0  0
   -1.2736   -1.9127    1.1280 H   0  0  0  0  0  0  0  0  0  0  0  0
   -2.0294   -3.2044   -1.8264 H   0  0  0  0  0  0  0  0  0  0  0  0
   -0.9914   -2.0666   -0.9542 H   0  0  0  0  0  0  0  0  0  0  0  0
   -1.8976   -3.4225   -0.0765 H   0  0  0  0  0  0  0  0  0  0  0  0
   -3.5204   -1.6433   -2.7371 H   0  0  0  0  0  0  0  0  0  0  0  0
   -4.7358   -2.4122   -1.5935 H   0  0  0  0  0  0  0  0  0  0  0  0
   -5.6005   -0.1658   -2.3394 H   0  0  0  0  0  0  0  0  0  0  0  0
   -4.0319    0.5407   -1.7643 H   0  0  0  0  0  0  0  0  0  0  0  0
   -6.0831    0.5101   -0.0158 H   0  0  0  0  0  0  0  0  0  0  0  0
   -5.5892   -1.2722    0.0874 H   0  0  0  0  0  0  0  0  0  0  0  0
   -4.4321    1.9685   -0.3679 H   0  0  0  0  0  0  0  0  0  0  0  0
   -3.6222    2.2207    1.1744 H   0  0  0  0  0  0  0  0  0  0  0  0
   -2.6553    1.5667   -0.1860 H   0  0  0  0  0  0  0  0  0  0  0  0
   -3.9990    1.0229    2.6219 H   0  0  0  0  0  0  0  0  0  0  0  0
   -5.6107    0.3973    2.1236 H   0  0  0  0  0  0  0  0  0  0  0  0
   -4.3031   -0.7547    2.6681 H   0  0  0  0  0  0  0  0  0  0  0  0
  1  2  1  0
  2  3  2  0
  2  4  1  0
  4  5  1  0
  5  6  1  0
  6  7  2  3
  7  8  1  0
  7  9  1  0
  9 10  2  3
 10 11  1  0
 11 12  1  0
 11 13  1  0
 13 14  1  0
 13 15  2  3
 15 16  1  0
 16 17  1  0
 17 18  2  0
 18 19  1  0
 18 20  1  0
 20 21  1  0
 21 22  1  0
 22 23  1  0
 23 24  1  0
 23 25  1  0
 23 17  1  0
  1 26  1  0
  1 27  1  0
  1 28  1  0
  5 29  1  0
  5 30  1  0
  6 31  1  0
  8 32  1  0
  8 33  1  0
  8 34  1  0
  9 35  1  0
 10 36  1  0
 11 37  1  0
 12 38  1  0
 14 39  1  0
 14 40  1  0
 14 41  1  0
 15 42  1  0
 16 43  1  0
 16 44  1  0
 19 45  1  0
 19 46  1  0
 19 47  1  0
 20 48  1  0
 20 49  1  0
 21 50  1  0
 21 51  1  0
 22 52  1  0
 22 53  1  0
 24 54  1  0
 24 55  1  0
 24 56  1  0
 25 57  1  0
 25 58  1  0
 25 59  1  0
M  END

$$$$
