
     RDKit          3D

 54 54  0  0  0  0  0  0  0  0999 V2000
    6.8719    1.0503    1.9556 O   0  0  0  0  0  0  0  0  0  0  0  0
    6.4261   -0.2388    1.6492 C   0  0  0  0  0  0  0  0  0  0  0  0
    6.2603   -0.3505    0.1875 C   0  0  0  0  0  0  0  0  0  0  0  0
    5.1533   -0.6271   -0.4410 C   0  0  0  0  0  0  0  0  0  0  0  0
    5.1384   -0.7078   -1.9459 C   0  0  0  0  0  0  0  0  0  0  0  0
    3.8795   -0.8737    0.2212 C   0  0  0  0  0  0  0  0  0  0  0  0
    2.7598   -1.1559   -0.4592 C   0  0  0  0  0  0  0  0  0  0  0  0
    1.4621   -1.4094    0.1710 C   0  0  0  0  0  0  0  0  0  0  0  0
    0.7623   -2.4686   -0.3620 O   0  0  0  0  0  0  0  0  0  0  0  0
    0.6017   -0.1718    0.0425 C   0  0  0  0  0  0  0  0  0  0  0  0
    1.1681    1.0573    0.6861 C   0  0  0  0  0  0  0  0  0  0  0  0
   -0.5474   -0.2000   -0.5934 C   0  0  0  0  0  0  0  0  0  0  0  0
   -1.4560    0.9611   -0.7687 C   0  0  0  0  0  0  0  0  0  0  0  0
   -2.7965    0.7102   -0.1780 C   0  0  0  0  0  0  0  0  0  0  0  0
   -3.2005    1.5439    0.7951 C   0  0  0  0  0  0  0  0  0  0  0  0
   -2.2710    2.6375    1.1888 C   0  0  0  0  0  0  0  0  0  0  0  0
   -4.5141    1.4159    1.4763 C   0  0  0  0  0  0  0  0  0  0  0  0
   -5.1195    0.0645    1.2238 C   0  0  0  0  0  0  0  0  0  0  0  0
   -5.0942   -0.1223   -0.2971 C   0  0  0  0  0  0  0  0  0  0  0  0
   -3.6370   -0.4178   -0.6653 C   0  0  0  0  0  0  0  0  0  0  0  0
   -3.2367   -1.7544   -0.1350 C   0  0  0  0  0  0  0  0  0  0  0  0
   -3.5739   -0.3793   -2.1943 C   0  0  0  0  0  0  0  0  0  0  0  0
    7.3502    1.3869    1.1655 H   0  0  0  0  0  0  0  0  0  0  0  0
    5.5178   -0.4609    2.2115 H   0  0  0  0  0  0  0  0  0  0  0  0
    7.1839   -0.9928    1.9896 H   0  0  0  0  0  0  0  0  0  0  0  0
    7.1715   -0.1801   -0.4089 H   0  0  0  0  0  0  0  0  0  0  0  0
    6.0964   -0.2691   -2.3367 H   0  0  0  0  0  0  0  0  0  0  0  0
    5.0584   -1.7565   -2.2782 H   0  0  0  0  0  0  0  0  0  0  0  0
    4.3194   -0.1352   -2.3888 H   0  0  0  0  0  0  0  0  0  0  0  0
    3.7559   -0.8449    1.2996 H   0  0  0  0  0  0  0  0  0  0  0  0
    2.7946   -1.2053   -1.5583 H   0  0  0  0  0  0  0  0  0  0  0  0
    1.5935   -1.5444    1.2829 H   0  0  0  0  0  0  0  0  0  0  0  0
    1.2953   -2.9613   -1.0359 H   0  0  0  0  0  0  0  0  0  0  0  0
    2.2702    1.0034    0.7618 H   0  0  0  0  0  0  0  0  0  0  0  0
    0.9312    1.9805    0.1403 H   0  0  0  0  0  0  0  0  0  0  0  0
    0.7863    1.0970    1.7076 H   0  0  0  0  0  0  0  0  0  0  0  0
   -0.8550   -1.1441   -1.0265 H   0  0  0  0  0  0  0  0  0  0  0  0
   -1.0154    1.9070   -0.4569 H   0  0  0  0  0  0  0  0  0  0  0  0
   -1.5889    1.0545   -1.8864 H   0  0  0  0  0  0  0  0  0  0  0  0
   -2.7517    3.2080    2.0192 H   0  0  0  0  0  0  0  0  0  0  0  0
   -1.2903    2.2973    1.5311 H   0  0  0  0  0  0  0  0  0  0  0  0
   -2.1131    3.3902    0.3875 H   0  0  0  0  0  0  0  0  0  0  0  0
   -5.2243    2.2267    1.2219 H   0  0  0  0  0  0  0  0  0  0  0  0
   -4.2820    1.4567    2.5728 H   0  0  0  0  0  0  0  0  0  0  0  0
   -4.5619   -0.7329    1.7235 H   0  0  0  0  0  0  0  0  0  0  0  0
   -6.1921    0.1121    1.5230 H   0  0  0  0  0  0  0  0  0  0  0  0
   -5.7688   -0.9162   -0.6103 H   0  0  0  0  0  0  0  0  0  0  0  0
   -5.3500    0.8654   -0.7279 H   0  0  0  0  0  0  0  0  0  0  0  0
   -2.8598   -2.4374   -0.9338 H   0  0  0  0  0  0  0  0  0  0  0  0
   -2.4712   -1.6421    0.6600 H   0  0  0  0  0  0  0  0  0  0  0  0
   -4.1349   -2.2355    0.3373 H   0  0  0  0  0  0  0  0  0  0  0  0
   -2.7033   -0.9728   -2.5242 H   0  0  0  0  0  0  0  0  0  0  0  0
   -4.5076   -0.7871   -2.6328 H   0  0  0  0  0  0  0  0  0  0  0  0
   -3.4912    0.6695   -2.4925 H   0  0  0  0  0  0  0  0  0  0  0  0
  1  2  1  0
  2  3  1  0
  3  4  2  3
  4  5  1  0
  4  6  1  0
  6  7  2  3
  7  8  1  0
  8  9  1  0
  8 10  1  0
 10 11  1  0
 10 12  2  3
 12 13  1  0
 13 14  1  0
 14 15  2  0
 15 16  1  0
 15 17  1  0
 17 18  1  0
 18 19  1  0
 19 20  1  0
 20 21  1  0
 20 22  1  0
 20 14  1  0
  1 23  1  0
  2 24  1  0
  2 25  1  0
  3 26  1  0
  5 27  1  0
  5 28  1  0
  5 29  1  0
  6 30  1  0
  7 31  1  0
  8 32  1  0
  9 33  1  0
 11 34  1  0
 11 35  1  0
 11 36  1  0
 12 37  1  0
 13 38  1  0
 13 39  1  0
 16 40  1  0
 16 41  1  0
 16 42  1  0
 17 43  1  0
 17 44  1  0
 18 45  1  0
 18 46  1  0
 19 47  1  0
 19 48  1  0
 21 49  1  0
 21 50  1  0
 21 51  1  0
 22 52  1  0
 22 53  1  0
 22 54  1  0
M  END

$$$$
