
     RDKit          3D

 16 15  0  0  0  0  0  0  0  0999 V2000
    2.9065    0.1410   -0.7047 C   0  0  0  0  0  0  0  0  0  0  0  0
    1.7985   -0.6142   -0.2313 O   0  0  0  0  0  0  0  0  0  0  0  0
    0.6612    0.0709    0.1670 C   0  0  0  0  0  0  0  0  0  0  0  0
    0.6698    1.3229    0.0837 O   0  0  0  0  0  0  0  0  0  0  0  0
   -0.5421   -0.6770    0.6844 C   0  0  0  0  0  0  0  0  0  0  0  0
   -1.5831   -0.6081   -0.3773 C   0  0  0  0  0  0  0  0  0  0  0  0
   -2.5466    0.5258   -0.3913 C   0  0  0  0  0  0  0  0  0  0  0  0
   -1.6099   -1.5015   -1.2164 O   0  0  0  0  0  0  0  0  0  0  0  0
    2.6316    0.8102   -1.5457 H   0  0  0  0  0  0  0  0  0  0  0  0
    3.3875    0.7082    0.1239 H   0  0  0  0  0  0  0  0  0  0  0  0
    3.6826   -0.5647   -1.0584 H   0  0  0  0  0  0  0  0  0  0  0  0
   -0.2751   -1.7244    0.8820 H   0  0  0  0  0  0  0  0  0  0  0  0
   -0.8481   -0.2110    1.6286 H   0  0  0  0  0  0  0  0  0  0  0  0
   -3.3511    0.3120    0.3380 H   0  0  0  0  0  0  0  0  0  0  0  0
   -2.0161    1.4640   -0.1476 H   0  0  0  0  0  0  0  0  0  0  0  0
   -2.9655    0.5459   -1.4160 H   0  0  0  0  0  0  0  0  0  0  0  0
  1  2  1  0
  2  3  1  0
  3  4  2  0
  3  5  1  0
  5  6  1  0
  6  7  1  0
  6  8  2  0
  1  9  1  0
  1 10  1  0
  1 11  1  0
  5 12  1  0
  5 13  1  0
  7 14  1  0
  7 15  1  0
  7 16  1  0
M  END

$$$$
