
     RDKit          3D

 23 22  0  0  0  0  0  0  0  0999 V2000
    3.7280    0.9903    0.6402 C   0  0  0  0  0  0  0  0  0  0  0  0
    2.5659    0.5994   -0.2094 C   0  0  0  0  0  0  0  0  0  0  0  0
    2.5269    0.7983   -1.4164 O   0  0  0  0  0  0  0  0  0  0  0  0
    1.4212   -0.0551    0.4512 C   0  0  0  0  0  0  0  0  0  0  0  0
    0.3237   -0.3908   -0.5375 C   0  0  0  0  0  0  0  0  0  0  0  0
   -0.8190   -1.0413    0.1066 C   0  0  0  0  0  0  0  0  0  0  0  0
   -2.0418   -0.4880    0.0605 C   0  0  0  0  0  0  0  0  0  0  0  0
   -2.1983    0.8001   -0.6620 C   0  0  0  0  0  0  0  0  0  0  0  0
   -3.1936   -1.1754    0.7284 C   0  0  0  0  0  0  0  0  0  0  0  0
    3.4487    1.8812    1.2213 H   0  0  0  0  0  0  0  0  0  0  0  0
    3.9637    0.1162    1.2916 H   0  0  0  0  0  0  0  0  0  0  0  0
    4.6255    1.2103    0.0290 H   0  0  0  0  0  0  0  0  0  0  0  0
    0.9453    0.6345    1.1970 H   0  0  0  0  0  0  0  0  0  0  0  0
    1.7927   -0.9396    1.0011 H   0  0  0  0  0  0  0  0  0  0  0  0
    0.0066    0.5925   -0.9534 H   0  0  0  0  0  0  0  0  0  0  0  0
    0.7584   -1.0153   -1.3538 H   0  0  0  0  0  0  0  0  0  0  0  0
   -0.6795   -1.9812    0.6279 H   0  0  0  0  0  0  0  0  0  0  0  0
   -3.2899    1.0696   -0.6801 H   0  0  0  0  0  0  0  0  0  0  0  0
   -1.5981    1.6130   -0.2151 H   0  0  0  0  0  0  0  0  0  0  0  0
   -1.9000    0.7291   -1.7362 H   0  0  0  0  0  0  0  0  0  0  0  0
   -3.8615   -0.3892    1.1304 H   0  0  0  0  0  0  0  0  0  0  0  0
   -3.7391   -1.7106   -0.0776 H   0  0  0  0  0  0  0  0  0  0  0  0
   -2.7855   -1.8478    1.4941 H   0  0  0  0  0  0  0  0  0  0  0  0
  1  2  1  0
  2  3  2  0
  2  4  1  0
  4  5  1  0
  5  6  1  0
  6  7  2  3
  7  8  1  0
  7  9  1  0
  1 10  1  0
  1 11  1  0
  1 12  1  0
  4 13  1  0
  4 14  1  0
  5 15  1  0
  5 16  1  0
  6 17  1  0
  8 18  1  0
  8 19  1  0
  8 20  1  0
  9 21  1  0
  9 22  1  0
  9 23  1  0
M  END

$$$$
