
     RDKit          3D

 14 13  0  0  0  0  0  0  0  0999 V2000
    2.1910   -1.1663    0.6694 C   0  0  0  0  0  0  0  0  0  0  0  0
    1.1797   -0.6705    0.2128 C   0  0  0  0  0  0  0  0  0  0  0  0
   -0.0574   -0.0802   -0.3247 C   0  0  0  0  0  0  0  0  0  0  0  0
    0.0519    1.4209   -0.1748 C   0  0  0  0  0  0  0  0  0  0  0  0
   -1.2013   -0.5828    0.4911 C   0  0  0  0  0  0  0  0  0  0  0  0
   -0.1037   -0.4754   -1.6541 O   0  0  0  0  0  0  0  0  0  0  0  0
    3.0797   -1.5992    1.0709 H   0  0  0  0  0  0  0  0  0  0  0  0
    0.6891    1.6758    0.7050 H   0  0  0  0  0  0  0  0  0  0  0  0
    0.5496    1.8759   -1.0600 H   0  0  0  0  0  0  0  0  0  0  0  0
   -0.9316    1.8966    0.0345 H   0  0  0  0  0  0  0  0  0  0  0  0
   -1.9292    0.2222    0.7709 H   0  0  0  0  0  0  0  0  0  0  0  0
   -0.8496   -1.0123    1.4742 H   0  0  0  0  0  0  0  0  0  0  0  0
   -1.7724   -1.3365   -0.0837 H   0  0  0  0  0  0  0  0  0  0  0  0
   -0.8960   -0.1682   -2.1316 H   0  0  0  0  0  0  0  0  0  0  0  0
  1  2  3  0
  2  3  1  0
  3  4  1  0
  3  5  1  0
  3  6  1  0
  1  7  1  0
  4  8  1  0
  4  9  1  0
  4 10  1  0
  5 11  1  0
  5 12  1  0
  5 13  1  0
  6 14  1  0
M  END

$$$$
