
     RDKit          3D

 16 15  0  0  0  0  0  0  0  0999 V2000
    1.9529   -0.2154    0.4595 C   0  0  0  0  0  0  0  0  0  0  0  0
    0.7517   -0.3099    1.0232 C   0  0  0  0  0  0  0  0  0  0  0  0
   -0.4567    0.0272    0.2207 C   0  0  0  0  0  0  0  0  0  0  0  0
   -0.2517    1.3461   -0.4665 C   0  0  0  0  0  0  0  0  0  0  0  0
   -0.6777   -1.1073   -0.7457 C   0  0  0  0  0  0  0  0  0  0  0  0
   -1.5346    0.1243    1.0636 O   0  0  0  0  0  0  0  0  0  0  0  0
    2.0872    0.0945   -0.5526 H   0  0  0  0  0  0  0  0  0  0  0  0
    2.8445   -0.4575    1.0311 H   0  0  0  0  0  0  0  0  0  0  0  0
    0.6670   -0.6301    2.0569 H   0  0  0  0  0  0  0  0  0  0  0  0
   -1.2513    1.7924   -0.6399 H   0  0  0  0  0  0  0  0  0  0  0  0
    0.2587    2.0145    0.2554 H   0  0  0  0  0  0  0  0  0  0  0  0
    0.2827    1.2822   -1.4335 H   0  0  0  0  0  0  0  0  0  0  0  0
   -1.6780   -1.0491   -1.2386 H   0  0  0  0  0  0  0  0  0  0  0  0
    0.0716   -1.1999   -1.5324 H   0  0  0  0  0  0  0  0  0  0  0  0
   -0.6867   -2.0473   -0.1339 H   0  0  0  0  0  0  0  0  0  0  0  0
   -2.3796    0.3354    0.6327 H   0  0  0  0  0  0  0  0  0  0  0  0
  1  2  2  0
  2  3  1  0
  3  4  1  0
  3  5  1  0
  3  6  1  0
  1  7  1  0
  1  8  1  0
  2  9  1  0
  4 10  1  0
  4 11  1  0
  4 12  1  0
  5 13  1  0
  5 14  1  0
  5 15  1  0
  6 16  1  0
M  END

$$$$
