
     RDKit          3D

 11 10  0  0  0  0  0  0  0  0999 V2000
    1.9715    0.3177   -0.2131 C   0  0  0  0  0  0  0  0  0  0  0  0
    0.7481    0.5462    0.2426 C   0  0  0  0  0  0  0  0  0  0  0  0
   -0.3145   -0.3863   -0.1217 C   0  0  0  0  0  0  0  0  0  0  0  0
   -1.7051   -0.2517    0.3123 C   0  0  0  0  0  0  0  0  0  0  0  0
    0.0338   -1.3586   -0.8611 O   0  0  0  0  0  0  0  0  0  0  0  0
    2.8162    0.9634    0.0122 H   0  0  0  0  0  0  0  0  0  0  0  0
    2.1934   -0.5348   -0.8407 H   0  0  0  0  0  0  0  0  0  0  0  0
    0.5911    1.4173    0.8666 H   0  0  0  0  0  0  0  0  0  0  0  0
   -2.3553   -0.7560   -0.4451 H   0  0  0  0  0  0  0  0  0  0  0  0
   -1.8976   -0.7632    1.2702 H   0  0  0  0  0  0  0  0  0  0  0  0
   -2.0815    0.8061    0.3467 H   0  0  0  0  0  0  0  0  0  0  0  0
  1  2  2  0
  2  3  1  0
  3  4  1  0
  3  5  2  0
  1  6  1  0
  1  7  1  0
  2  8  1  0
  4  9  1  0
  4 10  1  0
  4 11  1  0
M  END

$$$$
