
     RDKit          3D

 34 33  0  0  0  0  0  0  0  0999 V2000
    5.4060   -1.1817   -1.7651 C   0  0  0  0  0  0  0  0  0  0  0  0
    4.3094   -0.7190   -0.8509 C   0  0  0  0  0  0  0  0  0  0  0  0
    4.5863   -0.7706    0.3763 O   0  0  0  0  0  0  0  0  0  0  0  0
    3.0554   -0.2611   -1.3997 C   0  0  0  0  0  0  0  0  0  0  0  0
    2.0116    0.1698   -0.7427 C   0  0  0  0  0  0  0  0  0  0  0  0
    1.8635    0.2908    0.6869 C   0  0  0  0  0  0  0  0  0  0  0  0
    0.7923    0.7312    1.3196 C   0  0  0  0  0  0  0  0  0  0  0  0
    0.7847    0.8020    2.8361 C   0  0  0  0  0  0  0  0  0  0  0  0
   -0.4574    1.1829    0.6730 C   0  0  0  0  0  0  0  0  0  0  0  0
   -1.6488    0.3346    1.1260 C   0  0  0  0  0  0  0  0  0  0  0  0
   -2.8434    0.8752    0.4179 C   0  0  0  0  0  0  0  0  0  0  0  0
   -3.5969    0.1754   -0.4036 C   0  0  0  0  0  0  0  0  0  0  0  0
   -4.7928    0.7514   -1.0999 C   0  0  0  0  0  0  0  0  0  0  0  0
   -3.2819   -1.2450   -0.6770 C   0  0  0  0  0  0  0  0  0  0  0  0
    5.2283   -0.7030   -2.7405 H   0  0  0  0  0  0  0  0  0  0  0  0
    5.3138   -2.2887   -1.8093 H   0  0  0  0  0  0  0  0  0  0  0  0
    6.3745   -0.8564   -1.3455 H   0  0  0  0  0  0  0  0  0  0  0  0
    2.9810   -0.2819   -2.5035 H   0  0  0  0  0  0  0  0  0  0  0  0
    1.1403    0.4781   -1.3444 H   0  0  0  0  0  0  0  0  0  0  0  0
    2.6985   -0.0020    1.3237 H   0  0  0  0  0  0  0  0  0  0  0  0
    0.3526   -0.1316    3.2702 H   0  0  0  0  0  0  0  0  0  0  0  0
    0.1843    1.6690    3.1703 H   0  0  0  0  0  0  0  0  0  0  0  0
    1.7963    0.9030    3.2489 H   0  0  0  0  0  0  0  0  0  0  0  0
   -0.6678    2.2669    0.9063 H   0  0  0  0  0  0  0  0  0  0  0  0
   -0.4716    1.1339   -0.4248 H   0  0  0  0  0  0  0  0  0  0  0  0
   -1.7358    0.3106    2.2137 H   0  0  0  0  0  0  0  0  0  0  0  0
   -1.5419   -0.7089    0.7668 H   0  0  0  0  0  0  0  0  0  0  0  0
   -3.1120    1.9118    0.5883 H   0  0  0  0  0  0  0  0  0  0  0  0
   -4.4840    1.0366   -2.1148 H   0  0  0  0  0  0  0  0  0  0  0  0
   -5.0230    1.7029   -0.5724 H   0  0  0  0  0  0  0  0  0  0  0  0
   -5.6513    0.0594   -1.0576 H   0  0  0  0  0  0  0  0  0  0  0  0
   -3.2114   -1.7884    0.3103 H   0  0  0  0  0  0  0  0  0  0  0  0
   -2.2802   -1.3347   -1.1534 H   0  0  0  0  0  0  0  0  0  0  0  0
   -4.0786   -1.7638   -1.2292 H   0  0  0  0  0  0  0  0  0  0  0  0
  1  2  1  0
  2  3  2  0
  2  4  1  0
  4  5  2  3
  5  6  1  0
  6  7  2  3
  7  8  1  0
  7  9  1  0
  9 10  1  0
 10 11  1  0
 11 12  2  3
 12 13  1  0
 12 14  1  0
  1 15  1  0
  1 16  1  0
  1 17  1  0
  4 18  1  0
  5 19  1  0
  6 20  1  0
  8 21  1  0
  8 22  1  0
  8 23  1  0
  9 24  1  0
  9 25  1  0
 10 26  1  0
 10 27  1  0
 11 28  1  0
 13 29  1  0
 13 30  1  0
 13 31  1  0
 14 32  1  0
 14 33  1  0
 14 34  1  0
M  END

$$$$
