
     RDKit          3D

 56 56  0  0  0  0  0  0  0  0999 V2000
   -3.3020   -1.6671    2.0688 C   0  0  0  0  0  0  0  0  0  0  0  0
   -4.2660   -1.1441    1.0750 C   0  0  0  0  0  0  0  0  0  0  0  0
   -3.9049   -0.3983    0.0650 C   0  0  0  0  0  0  0  0  0  0  0  0
   -5.0294    0.0427   -0.8507 C   0  0  0  0  0  0  0  0  0  0  0  0
   -6.1866    0.5389   -0.0501 C   0  0  0  0  0  0  0  0  0  0  0  0
   -6.4449   -0.1659    1.2429 C   0  0  0  0  0  0  0  0  0  0  0  0
   -5.7209   -1.4973    1.2725 C   0  0  0  0  0  0  0  0  0  0  0  0
   -5.4763   -1.1103   -1.7178 C   0  0  0  0  0  0  0  0  0  0  0  0
   -4.5555    1.1391   -1.7999 C   0  0  0  0  0  0  0  0  0  0  0  0
   -2.5971    0.0612   -0.2901 C   0  0  0  0  0  0  0  0  0  0  0  0
   -1.4269   -0.1083    0.2511 C   0  0  0  0  0  0  0  0  0  0  0  0
   -0.1746    0.4562   -0.2732 C   0  0  0  0  0  0  0  0  0  0  0  0
    0.9826    0.2095    0.3732 C   0  0  0  0  0  0  0  0  0  0  0  0
    2.2528    0.7417   -0.0996 C   0  0  0  0  0  0  0  0  0  0  0  0
    3.3704    0.4977    0.5310 C   0  0  0  0  0  0  0  0  0  0  0  0
    4.6809    0.9834    0.1362 C   0  0  0  0  0  0  0  0  0  0  0  0
    5.7563    0.6562    0.8777 C   0  0  0  0  0  0  0  0  0  0  0  0
    7.1099    1.1301    0.5111 C   0  0  0  0  0  0  0  0  0  0  0  0
    7.9205   -0.0016    0.2861 O   0  0  0  0  0  0  0  0  0  0  0  0
    8.1719   -0.9589    1.2562 C   0  0  0  0  0  0  0  0  0  0  0  0
    7.6855   -0.8821    2.4251 O   0  0  0  0  0  0  0  0  0  0  0  0
    9.0370   -2.1108    0.9192 C   0  0  0  0  0  0  0  0  0  0  0  0
    4.9442    1.8294   -1.0414 C   0  0  0  0  0  0  0  0  0  0  0  0
   -0.0650    1.2961   -1.4766 C   0  0  0  0  0  0  0  0  0  0  0  0
   -3.9173   -2.3236    2.7909 H   0  0  0  0  0  0  0  0  0  0  0  0
   -2.8488   -0.9025    2.7166 H   0  0  0  0  0  0  0  0  0  0  0  0
   -2.5874   -2.3928    1.6741 H   0  0  0  0  0  0  0  0  0  0  0  0
   -6.1112    1.6330    0.1600 H   0  0  0  0  0  0  0  0  0  0  0  0
   -7.1376    0.4469   -0.6479 H   0  0  0  0  0  0  0  0  0  0  0  0
   -6.0298    0.4585    2.0711 H   0  0  0  0  0  0  0  0  0  0  0  0
   -7.5235   -0.2693    1.3998 H   0  0  0  0  0  0  0  0  0  0  0  0
   -6.0992   -2.2211    0.5629 H   0  0  0  0  0  0  0  0  0  0  0  0
   -5.8019   -1.8442    2.3353 H   0  0  0  0  0  0  0  0  0  0  0  0
   -5.3864   -0.8511   -2.8013 H   0  0  0  0  0  0  0  0  0  0  0  0
   -6.5504   -1.2774   -1.5576 H   0  0  0  0  0  0  0  0  0  0  0  0
   -4.9460   -2.0614   -1.4958 H   0  0  0  0  0  0  0  0  0  0  0  0
   -5.5161    1.5189   -2.2625 H   0  0  0  0  0  0  0  0  0  0  0  0
   -3.9982    0.6848   -2.6129 H   0  0  0  0  0  0  0  0  0  0  0  0
   -4.1086    1.9706   -1.2654 H   0  0  0  0  0  0  0  0  0  0  0  0
   -2.5590    0.6826   -1.2055 H   0  0  0  0  0  0  0  0  0  0  0  0
   -1.3403   -0.6850    1.1335 H   0  0  0  0  0  0  0  0  0  0  0  0
    0.9785   -0.4092    1.2828 H   0  0  0  0  0  0  0  0  0  0  0  0
    2.2560    1.3404   -0.9777 H   0  0  0  0  0  0  0  0  0  0  0  0
    3.2933   -0.1265    1.4302 H   0  0  0  0  0  0  0  0  0  0  0  0
    5.6316    0.0353    1.7592 H   0  0  0  0  0  0  0  0  0  0  0  0
    7.0946    1.7626   -0.3772 H   0  0  0  0  0  0  0  0  0  0  0  0
    7.5728    1.7055    1.3629 H   0  0  0  0  0  0  0  0  0  0  0  0
    8.7210   -2.4793   -0.0971 H   0  0  0  0  0  0  0  0  0  0  0  0
    8.9297   -2.9299    1.6656 H   0  0  0  0  0  0  0  0  0  0  0  0
   10.0815   -1.7396    0.8645 H   0  0  0  0  0  0  0  0  0  0  0  0
    5.6278    1.3161   -1.7734 H   0  0  0  0  0  0  0  0  0  0  0  0
    5.3853    2.8259   -0.7610 H   0  0  0  0  0  0  0  0  0  0  0  0
    4.0300    2.0341   -1.6171 H   0  0  0  0  0  0  0  0  0  0  0  0
    0.6335    0.7368   -2.1714 H   0  0  0  0  0  0  0  0  0  0  0  0
   -0.9928    1.5603   -1.9674 H   0  0  0  0  0  0  0  0  0  0  0  0
    0.4566    2.2634   -1.2283 H   0  0  0  0  0  0  0  0  0  0  0  0
  1  2  1  0
  2  3  2  0
  3  4  1  0
  4  5  1  0
  5  6  1  0
  6  7  1  0
  4  8  1  0
  4  9  1  0
  3 10  1  0
 10 11  2  0
 11 12  1  0
 12 13  2  0
 13 14  1  0
 14 15  2  0
 15 16  1  0
 16 17  2  0
 17 18  1  0
 18 19  1  0
 19 20  1  0
 20 21  2  0
 20 22  1  0
 16 23  1  0
 12 24  1  0
  7  2  1  0
  1 25  1  0
  1 26  1  0
  1 27  1  0
  5 28  1  0
  5 29  1  0
  6 30  1  0
  6 31  1  0
  7 32  1  0
  7 33  1  0
  8 34  1  0
  8 35  1  0
  8 36  1  0
  9 37  1  0
  9 38  1  0
  9 39  1  0
 10 40  1  0
 11 41  1  0
 13 42  1  0
 14 43  1  0
 15 44  1  0
 17 45  1  0
 18 46  1  0
 18 47  1  0
 22 48  1  0
 22 49  1  0
 22 50  1  0
 23 51  1  0
 23 52  1  0
 23 53  1  0
 24 54  1  0
 24 55  1  0
 24 56  1  0
M  END

$$$$
